*Heading
ccx_demo
*Node,NSET=Nall
1,0,0,0
2,0,2,0
3,5,2,0
4,10,2,0
5,10,0,0
6,5,0,0
7,0,0,2
8,0,2,2
9,5,2,2
10,10,2,2
11,10,0,2
12,5,0,2
*Element,type=C3D8,ELSET=Eall
1,1,7,12,6,2,8,9,3
2,6,12,11,5,3,9,10,4
*Boundary
1,1,3
2,1,3
7,1,3
8,1,3
*MATERIAL,NAME=STEEL
*ELASTIC
210000.,.3
*SOLID SECTION, elset=Eall, material=STEEL
*Step
*Static
*Cload
5,2,10000.
11,2,10000.
*EL FILE
S,E
*NODE file
U
*end step
